LTspice 24.1.10 for Windows
Circuit: Z:\home\anindya\GH\Sadiku\Ex_04_78.net
Start Time: Sat Jan 10 15:22:24 2026
solver = Normal
Maximum thread count: 12
tnom = 27
temp = 27
method = trap
.step 
Total elapsed time: 0.204 seconds.

Files loaded:
Z:\home\anindya\GH\Sadiku\Ex_04_78.net

