LTspice 24.1.10 for Windows
Circuit: Z:\home\anindya\GH\Sadiku\Ex_04_80.net
Start Time: Sun Jan 11 04:50:10 2026
solver = Normal
Maximum thread count: 12
tnom = 27
temp = 27
method = trap
.step 
Total elapsed time: 0.030 seconds.

Files loaded:
Z:\home\anindya\GH\Sadiku\Ex_04_80.net

