LTspice 24.1.10 for Windows
Circuit: C:\users\anindya\Documents\GH\Sadiku\Ex_03_78.net
Start Time: Mon Nov 24 21:58:38 2025
solver = Normal
Maximum thread count: 12
tnom = 27
temp = 27
method = trap
Direct Newton iteration for .op point succeeded.
Total elapsed time: 0.246 seconds.

Files loaded:
C:\users\anindya\Documents\GH\Sadiku\Ex_03_78.net

