LTspice 24.1.10 for Windows
Circuit: Z:\home\anindya\GH\Sadiku\Ex_04_77.net
Start Time: Sat Jan 10 14:03:31 2026
solver = Normal
Maximum thread count: 12
tnom = 27
temp = 27
method = trap
.step 
Total elapsed time: 0.054 seconds.

Files loaded:
Z:\home\anindya\GH\Sadiku\Ex_04_77.net

