LTspice 24.1.10 for Windows
Circuit: C:\users\anindya\Documents\GH\Sadiku\Ex_03_80.net
Start Time: Thu Nov 27 14:01:21 2025
solver = Normal
Maximum thread count: 12
tnom = 27
temp = 27
method = trap
Direct Newton iteration for .op point succeeded.
Total elapsed time: 0.245 seconds.

Files loaded:
C:\users\anindya\Documents\GH\Sadiku\Ex_03_80.net

