LTspice 24.1.10 for Windows
Circuit: Z:\home\anindya\GH\Sadiku\Ex_04_81.net
Start Time: Sun Jan 11 05:34:04 2026
solver = Normal
Maximum thread count: 12
tnom = 27
temp = 27
method = trap
.step 
Total elapsed time: 0.032 seconds.

Files loaded:
Z:\home\anindya\GH\Sadiku\Ex_04_81.net

