LTspice 24.1.10 for Windows
Circuit: C:\users\anindya\Documents\GH\Sadiku\Ex_03_75.net
Start Time: Mon Nov 17 02:01:42 2025
solver = Normal
Maximum thread count: 12
tnom = 27
temp = 27
method = trap
Direct Newton iteration for .op point succeeded.
Total elapsed time: 0.075 seconds.

Files loaded:
C:\users\anindya\Documents\GH\Sadiku\Ex_03_75.net

