LTspice 24.1.10 for Windows
Circuit: Z:\home\anindya\GH\Sadiku\Prac_05_11.net
Start Time: Mon Jan 19 02:56:25 2026
solver = Normal
Maximum thread count: 12
tnom = 27
temp = 27
method = trap
Direct Newton iteration for .op point succeeded.
Total elapsed time: 0.063 seconds.

Files loaded:
Z:\home\anindya\GH\Sadiku\Prac_05_11.net
C:\users\anindya\AppData\Local\LTspice\lib\sub\uA741.lib

